tests/data/power_flow/pandapower-test-basic-node/pgm_sym_output.json
{
  "node": [
    {
      "id": 1,
      "energized": 1,
      "u_pu": 1.0,
      "u": 10500.0,
      "u_angle": 2.3536686774504265e-18
    },
    {
      "id": 2,
      "energized": 0,
      "u_pu": 0.0,
      "u": 0.0,
      "u_angle": 0.0
    }
  ],
  "source": [
    {
      "id": 4,
      "energized": 1,
      "p": -2.3419878674955333e-08,
      "q": 2.341987867495534e-09,
      "i": 1.294182137627804e-12,
      "s": 2.3536686774504262e-08,
      "pf": -0.9950371902099892
    }
  ]
}